9835049
  -OEChem-03312517002D

 28 29  0     1  0  0  0  0  0999 V2000
    8.6610   -1.3724    0.0000 S   0  0  0  0  0  0  0  0  0  0  0  0
    7.6610   -1.3724    0.0000 O   0  0  0  0  0  0  0  0  0  0  0  0
    8.2858    0.9595    0.0000 O   0  0  0  0  0  0  0  0  0  0  0  0
    3.7466    2.3724    0.0000 O   0  0  0  0  0  0  0  0  0  0  0  0
    9.6610   -1.3724    0.0000 O   0  0  0  0  0  0  0  0  0  0  0  0
    8.6610   -2.3724    0.0000 O   0  0  0  0  0  0  0  0  0  0  0  0
    8.6610   -0.3724    0.0000 O   0  0  0  0  0  0  0  0  0  0  0  0
    6.0209    0.9684    0.0000 N   0  0  0  0  0  0  0  0  0  0  0  0
    7.1610   -0.5064    0.0000 N   0  0  0  0  0  0  0  0  0  0  0  0
    2.3817    1.3061    0.0000 N   0  0  0  0  0  0  0  0  0  0  0  0
    5.7621    0.0024    0.0000 C   0  0  1  0  0  0  0  0  0  0  0  0
    5.2843    1.9510    0.0000 C   0  0  0  0  0  0  0  0  0  0  0  0
    4.5410   -0.8632    0.0000 C   0  0  0  0  0  0  0  0  0  0  0  0
    3.9876    0.6572    0.0000 C   0  0  1  0  0  0  0  0  0  0  0  0
    3.7120   -0.3040    0.0000 C   0  0  0  0  0  0  0  0  0  0  0  0
    7.4198    0.4595    0.0000 C   0  0  0  0  0  0  0  0  0  0  0  0
    3.3720    1.4452    0.0000 C   0  0  0  0  0  0  0  0  0  0  0  0
    5.5421   -0.8186    0.0000 H   0  0  0  0  0  0  0  0  0  0  0  0
    5.6021    2.4833    0.0000 H   0  0  0  0  0  0  0  0  0  0  0  0
    4.6711    2.0429    0.0000 H   0  0  0  0  0  0  0  0  0  0  0  0
    4.1352   -1.3320    0.0000 H   0  0  0  0  0  0  0  0  0  0  0  0
    4.9577   -1.3224    0.0000 H   0  0  0  0  0  0  0  0  0  0  0  0
    4.2164    1.2335    0.0000 H   0  0  0  0  0  0  0  0  0  0  0  0
    3.1372   -0.0718    0.0000 H   0  0  0  0  0  0  0  0  0  0  0  0
    3.4209   -0.8515    0.0000 H   0  0  0  0  0  0  0  0  0  0  0  0
    2.0000    1.7946    0.0000 H   0  0  0  0  0  0  0  0  0  0  0  0
    2.1494    0.7312    0.0000 H   0  0  0  0  0  0  0  0  0  0  0  0
    9.9710   -1.9094    0.0000 H   0  0  0  0  0  0  0  0  0  0  0  0
  1  2  1  0  0  0  0
  1  5  1  0  0  0  0
  1  6  2  0  0  0  0
  1  7  2  0  0  0  0
  2  9  1  0  0  0  0
  3 16  2  0  0  0  0
  4 17  2  0  0  0  0
  5 28  1  0  0  0  0
  8 12  1  0  0  0  0
  8 14  1  0  0  0  0
  8 16  1  0  0  0  0
  9 11  1  0  0  0  0
  9 16  1  0  0  0  0
 10 17  1  0  0  0  0
 10 26  1  0  0  0  0
 10 27  1  0  0  0  0
 11 12  1  0  0  0  0
 11 13  1  0  0  0  0
 11 18  1  1  0  0  0
 12 19  1  0  0  0  0
 12 20  1  0  0  0  0
 13 15  1  0  0  0  0
 13 21  1  0  0  0  0
 13 22  1  0  0  0  0
 14 15  1  0  0  0  0
 14 17  1  1  0  0  0
 14 23  1  0  0  0  0
 15 24  1  0  0  0  0
 15 25  1  0  0  0  0
M  END
> <PUBCHEM_COMPOUND_CID>
9835049

> <PUBCHEM_COMPOUND_CANONICALIZED>
1

> <PUBCHEM_CACTVS_COMPLEXITY>
457

> <PUBCHEM_CACTVS_HBOND_ACCEPTOR>
6

> <PUBCHEM_CACTVS_HBOND_DONOR>
2

> <PUBCHEM_CACTVS_ROTATABLE_BOND>
3

> <PUBCHEM_CACTVS_SUBSKEYS>
AAADccBjOABAAAAAAAAAAAAAAAAAAWAAAAAsAAAABYAAAAAAAAAAHgAUCAAACCjBgAQBAANQAIAIAAEQEDAAAAAAAAAgAAGIAACAQBIAgCAUAAAIFgKAAAEYCQAQAAAAAAAAAAAAAAAAAAAAAAAAAAAAAA==

> <PUBCHEM_IUPAC_OPENEYE_NAME>
[(2S,5R)-2-carbamoyl-7-oxo-1,6-diazabicyclo[3.2.1]octan-6-yl] hydrogen sulfate

> <PUBCHEM_IUPAC_CAS_NAME>
sulfuric acid [(2S,5R)-2-carbamoyl-7-oxo-1,6-diazabicyclo[3.2.1]octan-6-yl] ester

> <PUBCHEM_IUPAC_NAME_MARKUP>
[(2<I>S</I>,5<I>R</I>)-2-carbamoyl-7-oxo-1,6-diazabicyclo[3.2.1]octan-6-yl] hydrogen sulfate

> <PUBCHEM_IUPAC_NAME>
[(2S,5R)-2-carbamoyl-7-oxo-1,6-diazabicyclo[3.2.1]octan-6-yl] hydrogen sulfate

> <PUBCHEM_IUPAC_SYSTEMATIC_NAME>
[(2S,5R)-2-aminocarbonyl-7-oxidanylidene-1,6-diazabicyclo[3.2.1]octan-6-yl] hydrogen sulfate

> <PUBCHEM_IUPAC_TRADITIONAL_NAME>
sulfuric acid [(2S,5R)-2-carbamoyl-7-keto-1,6-diazabicyclo[3.2.1]octan-6-yl] ester

> <PUBCHEM_IUPAC_INCHI>
InChI=1S/C7H11N3O6S/c8-6(11)5-2-1-4-3-9(5)7(12)10(4)16-17(13,14)15/h4-5H,1-3H2,(H2,8,11)(H,13,14,15)/t4-,5+/m1/s1

> <PUBCHEM_IUPAC_INCHIKEY>
NDCUAPJVLWFHHB-UHNVWZDZSA-N

> <PUBCHEM_XLOGP3_AA>
-1.8

> <PUBCHEM_EXACT_MASS>
265.03685625

> <PUBCHEM_MOLECULAR_FORMULA>
C7H11N3O6S

> <PUBCHEM_MOLECULAR_WEIGHT>
265.25

> <PUBCHEM_OPENEYE_CAN_SMILES>
C1CC(N2CC1N(C2=O)OS(=O)(=O)O)C(=O)N

> <PUBCHEM_OPENEYE_ISO_SMILES>
C1C[C@H](N2C[C@@H]1N(C2=O)OS(=O)(=O)O)C(=O)N

> <PUBCHEM_CACTVS_TPSA>
139

> <PUBCHEM_MONOISOTOPIC_WEIGHT>
265.03685625

> <PUBCHEM_TOTAL_CHARGE>
0

> <PUBCHEM_HEAVY_ATOM_COUNT>
17

> <PUBCHEM_ATOM_DEF_STEREO_COUNT>
2

> <PUBCHEM_ATOM_UDEF_STEREO_COUNT>
0

> <PUBCHEM_BOND_DEF_STEREO_COUNT>
0

> <PUBCHEM_BOND_UDEF_STEREO_COUNT>
0

> <PUBCHEM_ISOTOPIC_ATOM_COUNT>
0

> <PUBCHEM_COMPONENT_COUNT>
1

> <PUBCHEM_CACTVS_TAUTO_COUNT>
-1

> <PUBCHEM_COORDINATE_TYPE>
1
5
255

> <PUBCHEM_BONDANNOTATIONS>
11  18  5
14  17  5

$$$$
